data_RSDFT
_cell_length_a     1.00000000E+01
_cell_length_b     1.00000000E+01
_cell_length_c     1.00000000E+01
_cell_angle_alpha  9.00000000E+01
_cell_angle_beta   9.00000000E+01
_cell_angle_gamma  9.00000000E+01
loop_
 _symmetry_equiv_pos_site_id
 _symmetry_equiv_pos_as_xyz
 1 'x, y, z'
loop_
 _atom_site_type_symbol
 _atom_site_label
 _atom_site_fract_x
 _atom_site_fract_y
 _atom_site_fract_z
O     O       0.000000   0.000000  -0.060959
O     O       0.000000   0.000000   0.060959
